    2
GaP                                     
 GA  0.000000000000E+00  0.000000000000E+00  0.000000000000E+00
 P   1.375774228730E+00 -1.375774228730E+00 -1.375774228730E+00
    2
GaP                                      E -2.2658811221340E+03 DE-1.8E-12( 10)
 GA  0.000000000000E+00  0.000000000000E+00  0.000000000000E+00
 P   1.375774228730E+00 -1.375774228730E+00 -1.375774228730E+00
    2
GaP                                      E -2.2658811221269E+03 DE-5.9E-12( 10)
 GA  0.000000000000E+00  0.000000000000E+00  0.000000000000E+00
 P   1.355137615299E+00 -1.375774228730E+00 -1.375774228730E+00
    2
GaP                                      E -2.2658809746038E+03 DE-3.6E-12(  9)
 GA  0.000000000000E+00  0.000000000000E+00  0.000000000000E+00
 P   1.355137615299E+00 -1.375774228730E+00 -1.375774228730E+00
    2
GaP                                      E -2.2658809746038E+03 DE 1.8E-12(  2)
 GA  0.000000000000E+00  0.000000000000E+00  0.000000000000E+00
 P   1.396410842161E+00 -1.375774228730E+00 -1.375774228730E+00
    2
GaP                                      E -2.2658809769267E+03 DE 4.5E-13(  9)
 GA  0.000000000000E+00  0.000000000000E+00  0.000000000000E+00
 P   1.396410842161E+00 -1.375774228730E+00 -1.375774228730E+00
    2
GaP                                      E -2.2658809769267E+03 DE-4.5E-13( 10)
 GA  0.000000000000E+00  0.000000000000E+00  0.000000000000E+00
 P   1.375774228730E+00 -1.375774228730E+00 -1.375774228730E+00
    2
GaP                                      E -2.2658811221341E+03 DE 4.5E-12( 10)
 GA  0.000000000000E+00  0.000000000000E+00  0.000000000000E+00
 P   1.375774228730E+00 -1.355137615299E+00 -1.355137615299E+00
    2
GaP                                      E -2.2658807359540E+03 DE 4.5E-13(  9)
 GA -1.561990769911E-02  0.000000000000E+00  0.000000000000E+00
 P   1.391394136429E+00 -1.355137615299E+00 -1.355137615299E+00
    2
GaP                                      E -2.2658808167129E+03 DE 1.8E-12(  9)
 GA -1.125146204584E-02  0.000000000000E+00  0.000000000000E+00
 P   1.387025690776E+00 -1.355137615299E+00 -1.355137615299E+00
    2
GaP                                      E -2.2658808312014E+03 DE-1.4E-12(  9)
 GA -1.125146204584E-02  0.000000000000E+00  0.000000000000E+00
 P   1.387025690776E+00 -1.355137615299E+00 -1.355137615299E+00
    2
GaP                                      E -2.2658808312014E+03 DE 2.7E-12(  2)
 GA  0.000000000000E+00  0.000000000000E+00  0.000000000000E+00
 P   1.375774228730E+00 -1.396410842161E+00 -1.396410842161E+00
    2
GaP                                      E -2.2658807359574E+03 DE 4.1E-12(  9)
 GA  1.562350882688E-02  0.000000000000E+00  0.000000000000E+00
 P   1.360150719903E+00 -1.396410842161E+00 -1.396410842161E+00
    2
GaP                                      E -2.2658808166951E+03 DE 9.1E-13(  9)
 GA  1.125157849169E-02  0.000000000000E+00  0.000000000000E+00
 P   1.364522650238E+00 -1.396410842161E+00 -1.396410842161E+00
    2
GaP                                      E -2.2658808312067E+03 DE-4.5E-12(  9)
 GA  1.125157849169E-02  0.000000000000E+00  0.000000000000E+00
 P   1.364522650238E+00 -1.396410842161E+00 -1.396410842161E+00
