    2
GaP                                     
 GA  0.000000000000E+00  0.000000000000E+00  0.000000000000E+00
 P   1.381996601460E+00 -1.381996601460E+00 -1.381996601460E+00
    2
GaP                                      E -2.2661949404679E+03 DE 4.5E-12( 11)
 GA  0.000000000000E+00  0.000000000000E+00  0.000000000000E+00
 P   1.381996601460E+00 -1.381996601460E+00 -1.381996601460E+00
    2
GaP                                      E -2.2661949404729E+03 DE 1.8E-12( 11)
 GA  0.000000000000E+00  0.000000000000E+00  0.000000000000E+00
 P   1.361266652438E+00 -1.381996601460E+00 -1.381996601460E+00
    2
GaP                                      E -2.2661947801951E+03 DE-1.8E-12( 10)
 GA  0.000000000000E+00  0.000000000000E+00  0.000000000000E+00
 P   1.361266652438E+00 -1.381996601460E+00 -1.381996601460E+00
    2
GaP                                      E -2.2661947801951E+03 DE 1.4E-12(  2)
 GA  0.000000000000E+00  0.000000000000E+00  0.000000000000E+00
 P   1.402726550482E+00 -1.381996601460E+00 -1.381996601460E+00
    2
GaP                                      E -2.2661947899559E+03 DE 1.4E-12( 10)
 GA  0.000000000000E+00  0.000000000000E+00  0.000000000000E+00
 P   1.402726550482E+00 -1.381996601460E+00 -1.381996601460E+00
    2
GaP                                      E -2.2661947899559E+03 DE 0.0E+00( 11)
 GA  0.000000000000E+00  0.000000000000E+00  0.000000000000E+00
 P   1.381996601460E+00 -1.381996601460E+00 -1.381996601460E+00
    2
GaP                                      E -2.2661949404671E+03 DE 2.7E-12( 11)
 GA  0.000000000000E+00  0.000000000000E+00  0.000000000000E+00
 P   1.381996601460E+00 -1.361266652438E+00 -1.361266652438E+00
    2
GaP                                      E -2.2661945452296E+03 DE 6.8E-12(  8)
 GA -1.730999088407E-02  0.000000000000E+00  0.000000000000E+00
 P   1.399306592344E+00 -1.361266652438E+00 -1.361266652438E+00
    2
GaP                                      E -2.2661945848950E+03 DE-1.8E-12(  9)
 GA -1.015615394406E-02  0.000000000000E+00  0.000000000000E+00
 P   1.392152755404E+00 -1.361266652438E+00 -1.361266652438E+00
    2
GaP                                      E -2.2661946242678E+03 DE 3.9E-11(  7)
 GA -1.015615394406E-02  0.000000000000E+00  0.000000000000E+00
 P   1.392152755404E+00 -1.361266652438E+00 -1.361266652438E+00
    2
GaP                                      E -2.2661946242678E+03 DE-1.8E-12(  2)
 GA  0.000000000000E+00  0.000000000000E+00  0.000000000000E+00
 P   1.381996601460E+00 -1.402726550482E+00 -1.402726550482E+00
    2
GaP                                      E -2.2661945452311E+03 DE-4.1E-12(  8)
 GA  1.731400791864E-02  0.000000000000E+00  0.000000000000E+00
 P   1.364682593541E+00 -1.402726550482E+00 -1.402726550482E+00
    2
GaP                                      E -2.2661945848536E+03 DE 1.8E-12(  9)
 GA  1.015623118541E-02  0.000000000000E+00  0.000000000000E+00
 P   1.371840370275E+00 -1.402726550482E+00 -1.402726550482E+00
    2
GaP                                      E -2.2661946242701E+03 DE 3.8E-11(  7)
 GA  1.015623118541E-02  0.000000000000E+00  0.000000000000E+00
 P   1.371840370275E+00 -1.402726550482E+00 -1.402726550482E+00
