    2
GaP                                     
 GA  0.000000000000E+00  0.000000000000E+00  0.000000000000E+00
 P   1.368766141550E+00 -1.368766141550E+00 -1.368766141550E+00
    2
GaP                                      E -2.2662735037931E+03 DE 8.5E-11( 10)
 GA  0.000000000000E+00  0.000000000000E+00  0.000000000000E+00
 P   1.368766141550E+00 -1.368766141550E+00 -1.368766141550E+00
    2
GaP                                      E -2.2662735038006E+03 DE 7.3E-11( 10)
 GA  0.000000000000E+00  0.000000000000E+00  0.000000000000E+00
 P   1.348234649427E+00 -1.368766141550E+00 -1.368766141550E+00
    2
GaP                                      E -2.2662733475000E+03 DE-1.4E-12( 10)
 GA  0.000000000000E+00  0.000000000000E+00  0.000000000000E+00
 P   1.348234649427E+00 -1.368766141550E+00 -1.368766141550E+00
    2
GaP                                      E -2.2662733475000E+03 DE-1.4E-12(  2)
 GA  0.000000000000E+00  0.000000000000E+00  0.000000000000E+00
 P   1.389297633673E+00 -1.368766141550E+00 -1.368766141550E+00
    2
GaP                                      E -2.2662733521591E+03 DE-2.3E-12( 10)
 GA  0.000000000000E+00  0.000000000000E+00  0.000000000000E+00
 P   1.389297633673E+00 -1.368766141550E+00 -1.368766141550E+00
    2
GaP                                      E -2.2662733521591E+03 DE-4.1E-12( 10)
 GA  0.000000000000E+00  0.000000000000E+00  0.000000000000E+00
 P   1.368766141550E+00 -1.368766141550E+00 -1.368766141550E+00
    2
GaP                                      E -2.2662735037853E+03 DE 7.5E-11( 10)
 GA  0.000000000000E+00  0.000000000000E+00  0.000000000000E+00
 P   1.368766141550E+00 -1.348234649427E+00 -1.348234649427E+00
    2
GaP                                      E -2.2662731263538E+03 DE 2.3E-12( 10)
 GA -1.531938109455E-02  0.000000000000E+00  0.000000000000E+00
 P   1.384085522645E+00 -1.348234649427E+00 -1.348234649427E+00
    2
GaP                                      E -2.2662732159540E+03 DE 5.5E-12(  9)
 GA -1.170309168438E-02  0.000000000000E+00  0.000000000000E+00
 P   1.380469233234E+00 -1.348234649427E+00 -1.348234649427E+00
    2
GaP                                      E -2.2662732254354E+03 DE-1.8E-12(  9)
 GA -1.170309168438E-02  0.000000000000E+00  0.000000000000E+00
 P   1.380469233234E+00 -1.348234649427E+00 -1.348234649427E+00
    2
GaP                                      E -2.2662732254354E+03 DE 4.5E-13(  2)
 GA  0.000000000000E+00  0.000000000000E+00  0.000000000000E+00
 P   1.368766141550E+00 -1.389297633673E+00 -1.389297633673E+00
    2
GaP                                      E -2.2662731263704E+03 DE 4.5E-13( 10)
 GA  1.532377280286E-02  0.000000000000E+00  0.000000000000E+00
 P   1.353442368747E+00 -1.389297633673E+00 -1.389297633673E+00
    2
GaP                                      E -2.2662732159362E+03 DE 0.0E+00(  9)
 GA  1.170256703093E-02  0.000000000000E+00  0.000000000000E+00
 P   1.357063574519E+00 -1.389297633673E+00 -1.389297633673E+00
    2
GaP                                      E -2.2662732254433E+03 DE 1.4E-12(  9)
 GA  1.170256703093E-02  0.000000000000E+00  0.000000000000E+00
 P   1.357063574519E+00 -1.389297633673E+00 -1.389297633673E+00
