    2
GaP                                     
 GA  0.000000000000E+00  0.000000000000E+00  0.000000000000E+00
 P   1.355306686945E+00 -1.355306686945E+00 -1.355306686945E+00
    2
GaP                                      E -2.2663778776258E+03 DE 6.8E-12( 10)
 GA  0.000000000000E+00  0.000000000000E+00  0.000000000000E+00
 P   1.393981454228E+00 -1.393981454228E+00 -1.393981454228E+00
    2
GaP                                      E -2.2663809448689E+03 DE 0.0E+00(  9)
 GA  0.000000000000E+00  0.000000000000E+00  0.000000000000E+00
 P   1.395230533237E+00 -1.395230533237E+00 -1.395230533237E+00
    2
GaP                                      E -2.2663809480130E+03 DE-1.4E-12(  8)
 GA  0.000000000000E+00  0.000000000000E+00  0.000000000000E+00
 P   1.395347156970E+00 -1.395347156970E+00 -1.395347156970E+00
    2
GaP                                      E -2.2663809480313E+03 DE 1.8E-12(  7)
 GA  0.000000000000E+00  0.000000000000E+00  0.000000000000E+00
 P   1.395347546040E+00 -1.395347546040E+00 -1.395347546040E+00
    2
GaP                                      E -2.2663809208989E+03 DE-6.8E-12(  7)
 GA  0.000000000000E+00  0.000000000000E+00  0.000000000000E+00
 P   1.395472312551E+00 -1.395472312551E+00 -1.395472312551E+00
    2
GaP                                      E -2.2663809209051E+03 DE 1.3E-11(  7)
 GA  0.000000000000E+00  0.000000000000E+00  0.000000000000E+00
 P   1.395471785378E+00 -1.395471785378E+00 -1.395471785378E+00
    2
GaP                                      E -2.2663809220612E+03 DE-2.3E-10(  3)
 GA  0.000000000000E+00  0.000000000000E+00  0.000000000000E+00
 P   1.395471785378E+00 -1.395471785378E+00 -1.395471785378E+00
