    2
GaP                                     
 GA  0.000000000000E+00  0.000000000000E+00  0.000000000000E+00
 P   1.355306686945E+00 -1.355306686945E+00 -1.355306686945E+00
    2
GaP                                      E -2.2658803683831E+03 DE-1.4E-12( 10)
 GA  0.000000000000E+00  0.000000000000E+00  0.000000000000E+00
 P   1.375485486231E+00 -1.375485486231E+00 -1.375485486231E+00
    2
GaP                                      E -2.2658811903322E+03 DE-7.3E-12(  9)
 GA  0.000000000000E+00  0.000000000000E+00  0.000000000000E+00
 P   1.375402145578E+00 -1.375402145578E+00 -1.375402145578E+00
    2
GaP                                      E -2.2658811233188E+03 DE-9.1E-13(  7)
 GA  0.000000000000E+00  0.000000000000E+00  0.000000000000E+00
 P   1.375760892556E+00 -1.375760892556E+00 -1.375760892556E+00
    2
GaP                                      E -2.2658811235385E+03 DE-2.7E-12(  8)
 GA  0.000000000000E+00  0.000000000000E+00  0.000000000000E+00
 P   1.375774228735E+00 -1.375774228735E+00 -1.375774228735E+00
    2
GaP                                      E -2.2658811221340E+03 DE-1.3E-11(  6)
 GA  0.000000000000E+00  0.000000000000E+00  0.000000000000E+00
 P   1.375774228735E+00 -1.375774228735E+00 -1.375774228735E+00
