    2
GaP                                     
 GA  0.000000000000E+00  0.000000000000E+00  0.000000000000E+00
 P   1.355306686945E+00 -1.355306686945E+00 -1.355306686945E+00
    2
GaP                                      E -2.2620816826692E+03 DE 7.3E-12( 10)
 GA  0.000000000000E+00  0.000000000000E+00  0.000000000000E+00
 P   1.347313765932E+00 -1.347313765932E+00 -1.347313765932E+00
    2
GaP                                      E -2.2620818132319E+03 DE-1.4E-12(  9)
 GA  0.000000000000E+00  0.000000000000E+00  0.000000000000E+00
 P   1.347629762372E+00 -1.347629762372E+00 -1.347629762372E+00
    2
GaP                                      E -2.2620818133872E+03 DE-5.0E-12(  8)
 GA  0.000000000000E+00  0.000000000000E+00  0.000000000000E+00
 P   1.347624787096E+00 -1.347624787096E+00 -1.347624787096E+00
    2
GaP                                      E -2.2620818127976E+03 DE-3.2E-12(  6)
 GA  0.000000000000E+00  0.000000000000E+00  0.000000000000E+00
 P   1.347624787096E+00 -1.347624787096E+00 -1.347624787096E+00
