    2
GaP                                     
 GA  0.000000000000E+00  0.000000000000E+00  0.000000000000E+00
 P   1.355306686945E+00 -1.355306686945E+00 -1.355306686945E+00
    2
GaP                                      E -2.2659467705613E+03 DE-1.4E-12( 11)
 GA  0.000000000000E+00  0.000000000000E+00  0.000000000000E+00
 P   1.366609848922E+00 -1.366609848922E+00 -1.366609848922E+00
    2
GaP                                      E -2.2659470109560E+03 DE 6.4E-12( 10)
 GA  0.000000000000E+00  0.000000000000E+00  0.000000000000E+00
 P   1.365705576648E+00 -1.365705576648E+00 -1.365705576648E+00
    2
GaP                                      E -2.2659470127680E+03 DE-2.5E-11(  8)
 GA  0.000000000000E+00  0.000000000000E+00  0.000000000000E+00
 P   1.365687820864E+00 -1.365687820864E+00 -1.365687820864E+00
    2
GaP                                      E -2.2659469821720E+03 DE 2.2E-10(  5)
 GA  0.000000000000E+00  0.000000000000E+00  0.000000000000E+00
 P   1.365799051740E+00 -1.365799051740E+00 -1.365799051740E+00
    2
GaP                                      E -2.2659469822140E+03 DE 1.3E-11(  7)
 GA  0.000000000000E+00  0.000000000000E+00  0.000000000000E+00
 P   1.365798720722E+00 -1.365798720722E+00 -1.365798720722E+00
    2
GaP                                      E -2.2659469816462E+03 DE 1.0E-10(  3)
 GA  0.000000000000E+00  0.000000000000E+00  0.000000000000E+00
 P   1.365798720722E+00 -1.365798720722E+00 -1.365798720722E+00
