    2
GaP                                     
 GA  0.000000000000E+00  0.000000000000E+00  0.000000000000E+00
 P   1.395471785380E+00  1.395471785380E+00  1.395471785380E+00
    2
GaP                                      E -2.2663809220612E+03 DE 3.6E-12( 10)
 GA  0.000000000000E+00  0.000000000000E+00  0.000000000000E+00
 P   1.395471785380E+00  1.395471785380E+00  1.395471785380E+00
    2
GaP                                      E -2.2663809220682E+03 DE 5.0E-12( 10)
 GA  0.000000000000E+00  0.000000000000E+00  0.000000000000E+00
 P   1.374539708599E+00  1.395471785380E+00  1.395471785380E+00
    2
GaP                                      E -2.2663807801218E+03 DE-2.3E-12(  9)
 GA  0.000000000000E+00  0.000000000000E+00  0.000000000000E+00
 P   1.374539708599E+00  1.395471785380E+00  1.395471785380E+00
    2
GaP                                      E -2.2663807801218E+03 DE-2.3E-12(  2)
 GA  0.000000000000E+00  0.000000000000E+00  0.000000000000E+00
 P   1.416403862161E+00  1.395471785380E+00  1.395471785380E+00
    2
GaP                                      E -2.2663807829825E+03 DE-1.4E-12(  9)
 GA  0.000000000000E+00  0.000000000000E+00  0.000000000000E+00
 P   1.416403862161E+00  1.395471785380E+00  1.395471785380E+00
    2
GaP                                      E -2.2663807829825E+03 DE-4.5E-13( 10)
 GA  0.000000000000E+00  0.000000000000E+00  0.000000000000E+00
 P   1.395471785380E+00  1.395471785380E+00  1.395471785380E+00
    2
GaP                                      E -2.2663809220793E+03 DE-1.8E-12( 10)
 GA  0.000000000000E+00  0.000000000000E+00  0.000000000000E+00
 P   1.395471785380E+00  1.374539708599E+00  1.374539708599E+00
    2
GaP                                      E -2.2663805682855E+03 DE 1.4E-12(  9)
 GA -2.097180096505E-02  0.000000000000E+00  0.000000000000E+00
 P   1.416443586345E+00  1.374539708599E+00  1.374539708599E+00
    2
GaP                                      E -2.2663805463699E+03 DE-5.0E-12(  9)
 GA -9.737886389489E-03  0.000000000000E+00  0.000000000000E+00
 P   1.405209671769E+00  1.374539708599E+00  1.374539708599E+00
    2
GaP                                      E -2.2663806331899E+03 DE-2.3E-12(  9)
 GA -9.737886389489E-03  0.000000000000E+00  0.000000000000E+00
 P   1.405209671769E+00  1.374539708599E+00  1.374539708599E+00
    2
GaP                                      E -2.2663806331899E+03 DE-4.5E-13(  2)
 GA  0.000000000000E+00  0.000000000000E+00  0.000000000000E+00
 P   1.395471785380E+00  1.416403862161E+00  1.416403862161E+00
    2
GaP                                      E -2.2663805682825E+03 DE 2.8E-11(  8)
 GA  2.097667918537E-02  0.000000000000E+00  0.000000000000E+00
 P   1.374495106195E+00  1.416403862161E+00  1.416403862161E+00
    2
GaP                                      E -2.2663805462925E+03 DE 4.1E-12(  9)
 GA  9.738027941470E-03  0.000000000000E+00  0.000000000000E+00
 P   1.385733757439E+00  1.416403862161E+00  1.416403862161E+00
    2
GaP                                      E -2.2663806331873E+03 DE 0.0E+00(  9)
 GA  9.738027941470E-03  0.000000000000E+00  0.000000000000E+00
 P   1.385733757439E+00  1.416403862161E+00  1.416403862161E+00
