    2
GaP                                     
 GA  0.000000000000E+00  0.000000000000E+00  0.000000000000E+00
 P   1.368766141530E+00  1.368766141530E+00  1.368766141530E+00
    2
GaP                                      E -2.2662735037931E+03 DE 9.2E-11( 10)
 GA  0.000000000000E+00  0.000000000000E+00  0.000000000000E+00
 P   1.368766141530E+00  1.368766141530E+00  1.368766141530E+00
    2
GaP                                      E -2.2662735037942E+03 DE 7.6E-11( 10)
 GA  0.000000000000E+00  0.000000000000E+00  0.000000000000E+00
 P   1.348234649407E+00  1.368766141530E+00  1.368766141530E+00
    2
GaP                                      E -2.2662733474919E+03 DE 2.7E-12( 10)
 GA  0.000000000000E+00  0.000000000000E+00  0.000000000000E+00
 P   1.348234649407E+00  1.368766141530E+00  1.368766141530E+00
    2
GaP                                      E -2.2662733474919E+03 DE 1.8E-12(  2)
 GA  0.000000000000E+00  0.000000000000E+00  0.000000000000E+00
 P   1.389297633653E+00  1.368766141530E+00  1.368766141530E+00
    2
GaP                                      E -2.2662733521540E+03 DE-1.1E-11( 10)
 GA  0.000000000000E+00  0.000000000000E+00  0.000000000000E+00
 P   1.389297633653E+00  1.368766141530E+00  1.368766141530E+00
    2
GaP                                      E -2.2662733521540E+03 DE-2.3E-12( 10)
 GA  0.000000000000E+00  0.000000000000E+00  0.000000000000E+00
 P   1.368766141530E+00  1.368766141530E+00  1.368766141530E+00
    2
GaP                                      E -2.2662735037853E+03 DE 7.2E-11( 10)
 GA  0.000000000000E+00  0.000000000000E+00  0.000000000000E+00
 P   1.368766141530E+00  1.348234649407E+00  1.348234649407E+00
    2
GaP                                      E -2.2662731263538E+03 DE 2.3E-12( 10)
 GA -1.531938110289E-02  0.000000000000E+00  0.000000000000E+00
 P   1.384085522633E+00  1.348234649407E+00  1.348234649407E+00
    2
GaP                                      E -2.2662732159540E+03 DE 4.1E-12(  9)
 GA -1.170309168798E-02  0.000000000000E+00  0.000000000000E+00
 P   1.380469233218E+00  1.348234649407E+00  1.348234649407E+00
    2
GaP                                      E -2.2662732254354E+03 DE 4.5E-13(  9)
 GA -1.170309168798E-02  0.000000000000E+00  0.000000000000E+00
 P   1.380469233218E+00  1.348234649407E+00  1.348234649407E+00
    2
GaP                                      E -2.2662732254354E+03 DE 6.4E-12(  2)
 GA  0.000000000000E+00  0.000000000000E+00  0.000000000000E+00
 P   1.368766141530E+00  1.389297633653E+00  1.389297633653E+00
    2
GaP                                      E -2.2662731263704E+03 DE-4.5E-13( 10)
 GA  1.532377279168E-02  0.000000000000E+00  0.000000000000E+00
 P   1.353442368738E+00  1.389297633653E+00  1.389297633653E+00
    2
GaP                                      E -2.2662732159362E+03 DE-1.4E-12(  9)
 GA  1.170256703609E-02  0.000000000000E+00  0.000000000000E+00
 P   1.357063574494E+00  1.389297633653E+00  1.389297633653E+00
    2
GaP                                      E -2.2662732254433E+03 DE-1.8E-12(  9)
 GA  1.170256703609E-02  0.000000000000E+00  0.000000000000E+00
 P   1.357063574494E+00  1.389297633653E+00  1.389297633653E+00
