    2
GaP                                     
 GA  0.000000000000E+00  0.000000000000E+00  0.000000000000E+00
 P   1.355306686945E+00  1.355306686945E+00  1.355306686945E+00
    2
GaP                                      E -2.2645210514893E+03 DE 4.5E-13( 11)
 GA  0.000000000000E+00  0.000000000000E+00  0.000000000000E+00
 P   1.355306686945E+00  1.355306686945E+00  1.355306686945E+00
    2
GaP                                      E -2.2645210514752E+03 DE 6.8E-12( 11)
 GA  0.000000000000E+00  0.000000000000E+00  0.000000000000E+00
 P   1.334977086641E+00  1.355306686945E+00  1.355306686945E+00
    2
GaP                                      E -2.2645208853286E+03 DE 4.5E-13( 10)
 GA  0.000000000000E+00  0.000000000000E+00  0.000000000000E+00
 P   1.334977086641E+00  1.355306686945E+00  1.355306686945E+00
    2
GaP                                      E -2.2645208853286E+03 DE-4.1E-12(  2)
 GA  0.000000000000E+00  0.000000000000E+00  0.000000000000E+00
 P   1.375636287249E+00  1.355306686945E+00  1.355306686945E+00
    2
GaP                                      E -2.2645208900500E+03 DE 2.3E-12( 10)
 GA  0.000000000000E+00  0.000000000000E+00  0.000000000000E+00
 P   1.375636287249E+00  1.355306686945E+00  1.355306686945E+00
    2
GaP                                      E -2.2645208900500E+03 DE-9.1E-13( 11)
 GA  0.000000000000E+00  0.000000000000E+00  0.000000000000E+00
 P   1.355306686945E+00  1.355306686945E+00  1.355306686945E+00
    2
GaP                                      E -2.2645210514702E+03 DE-2.3E-12( 11)
 GA  0.000000000000E+00  0.000000000000E+00  0.000000000000E+00
 P   1.355306686945E+00  1.334977086641E+00  1.334977086641E+00
    2
GaP                                      E -2.2645206134518E+03 DE-2.8E-11(  7)
 GA -1.215803998670E-02  0.000000000000E+00  0.000000000000E+00
 P   1.367464726932E+00  1.334977086641E+00  1.334977086641E+00
    2
GaP                                      E -2.2645207347838E+03 DE 2.7E-12(  9)
 GA -1.184335045871E-02  0.000000000000E+00  0.000000000000E+00
 P   1.367150037404E+00  1.334977086641E+00  1.334977086641E+00
    2
GaP                                      E -2.2645207348741E+03 DE-2.5E-11(  6)
 GA -1.184335045871E-02  0.000000000000E+00  0.000000000000E+00
 P   1.367150037404E+00  1.334977086641E+00  1.334977086641E+00
    2
GaP                                      E -2.2645207348741E+03 DE-2.7E-12(  2)
 GA  0.000000000000E+00  0.000000000000E+00  0.000000000000E+00
 P   1.355306686945E+00  1.375636287249E+00  1.375636287249E+00
    2
GaP                                      E -2.2645206134547E+03 DE 0.0E+00( 10)
 GA  1.216111686528E-02  0.000000000000E+00  0.000000000000E+00
 P   1.343145570080E+00  1.375636287249E+00  1.375636287249E+00
    2
GaP                                      E -2.2645207347867E+03 DE 5.9E-12(  9)
 GA  1.184343643040E-02  0.000000000000E+00  0.000000000000E+00
 P   1.343463250515E+00  1.375636287249E+00  1.375636287249E+00
    2
GaP                                      E -2.2645207348787E+03 DE-1.7E-11(  6)
 GA  1.184343643040E-02  0.000000000000E+00  0.000000000000E+00
 P   1.343463250515E+00  1.375636287249E+00  1.375636287249E+00
