    2
GaP                                     
 GA  0.000000000000E+00  0.000000000000E+00  0.000000000000E+00
 P   1.359354013590E+00  1.359354013590E+00  1.359354013590E+00
    2
GaP                                      E -2.2638802465302E+03 DE-2.7E-12( 10)
 GA  0.000000000000E+00  0.000000000000E+00  0.000000000000E+00
 P   1.359354013590E+00  1.359354013590E+00  1.359354013590E+00
    2
GaP                                      E -2.2638802465513E+03 DE 9.1E-13( 10)
 GA  0.000000000000E+00  0.000000000000E+00  0.000000000000E+00
 P   1.338963703386E+00  1.359354013590E+00  1.359354013590E+00
    2
GaP                                      E -2.2638800948009E+03 DE 1.1E-11(  9)
 GA  0.000000000000E+00  0.000000000000E+00  0.000000000000E+00
 P   1.338963703386E+00  1.359354013590E+00  1.359354013590E+00
    2
GaP                                      E -2.2638800948009E+03 DE 1.4E-12(  2)
 GA  0.000000000000E+00  0.000000000000E+00  0.000000000000E+00
 P   1.379744323794E+00  1.359354013590E+00  1.359354013590E+00
    2
GaP                                      E -2.2638800966077E+03 DE 1.8E-12(  9)
 GA  0.000000000000E+00  0.000000000000E+00  0.000000000000E+00
 P   1.379744323794E+00  1.359354013590E+00  1.359354013590E+00
    2
GaP                                      E -2.2638800966077E+03 DE 3.6E-12( 10)
 GA  0.000000000000E+00  0.000000000000E+00  0.000000000000E+00
 P   1.359354013590E+00  1.359354013590E+00  1.359354013590E+00
    2
GaP                                      E -2.2638802465419E+03 DE-4.1E-12( 10)
 GA  0.000000000000E+00  0.000000000000E+00  0.000000000000E+00
 P   1.359354013590E+00  1.338963703386E+00  1.338963703386E+00
    2
GaP                                      E -2.2638798400642E+03 DE 2.3E-12(  9)
 GA -1.316691731502E-02  0.000000000000E+00  0.000000000000E+00
 P   1.372520930905E+00  1.338963703386E+00  1.338963703386E+00
    2
GaP                                      E -2.2638799531660E+03 DE 7.3E-12(  9)
 GA -1.193729881559E-02  0.000000000000E+00  0.000000000000E+00
 P   1.371291312406E+00  1.338963703386E+00  1.338963703386E+00
    2
GaP                                      E -2.2638799544080E+03 DE-2.7E-12(  8)
 GA -1.193729881559E-02  0.000000000000E+00  0.000000000000E+00
 P   1.371291312406E+00  1.338963703386E+00  1.338963703386E+00
    2
GaP                                      E -2.2638799544080E+03 DE 4.1E-12(  2)
 GA  0.000000000000E+00  0.000000000000E+00  0.000000000000E+00
 P   1.359354013590E+00  1.379744323794E+00  1.379744323794E+00
    2
GaP                                      E -2.2638798400744E+03 DE-4.5E-13(  9)
 GA  1.316999406475E-02  0.000000000000E+00  0.000000000000E+00
 P   1.346184019525E+00  1.379744323794E+00  1.379744323794E+00
    2
GaP                                      E -2.2638799531704E+03 DE-9.1E-13(  9)
 GA  1.193732306591E-02  0.000000000000E+00  0.000000000000E+00
 P   1.347416690524E+00  1.379744323794E+00  1.379744323794E+00
    2
GaP                                      E -2.2638799544186E+03 DE-5.5E-12(  8)
 GA  1.193732306591E-02  0.000000000000E+00  0.000000000000E+00
 P   1.347416690524E+00  1.379744323794E+00  1.379744323794E+00
